dev_ANDES_experiment/cases/ieee39.raw
 0, 100.00, 33, 0, 1, 60.00     / IEEE 39-Bus New England System, PSS/E REV 33
IEEE 39-Bus New England System  -  10 machines, 19 loads, 34 lines, 12 transformers
Base case rebuilt to valid PSS/E REV 33 format
     1, 'BUS-01  ',  345.00, 1, 1, 1, 1,  1.03930,  -13.5360, 1.05, 0.95, 1.10, 0.90
     2, 'BUS-02  ',  345.00, 1, 1, 1, 1,  1.04840,   -9.7680, 1.05, 0.95, 1.10, 0.90
     3, 'BUS-03  ',  345.00, 1, 1, 1, 1,  1.03070,  -12.2760, 1.05, 0.95, 1.10, 0.90
     4, 'BUS-04  ',  345.00, 1, 1, 1, 1,  1.00440,  -12.6260, 1.05, 0.95, 1.10, 0.90
     5, 'BUS-05  ',  345.00, 1, 1, 1, 1,  1.00580,  -11.1920, 1.05, 0.95, 1.10, 0.90
     6, 'BUS-06  ',  345.00, 1, 1, 1, 1,  1.00820,  -10.6830, 1.05, 0.95, 1.10, 0.90
     7, 'BUS-07  ',  345.00, 1, 1, 1, 1,  0.99710,  -12.7640, 1.05, 0.95, 1.10, 0.90
     8, 'BUS-08  ',  345.00, 1, 1, 1, 1,  0.99600,  -13.3360, 1.05, 0.95, 1.10, 0.90
     9, 'BUS-09  ',  345.00, 1, 1, 1, 1,  1.02820,   -9.4450, 1.05, 0.95, 1.10, 0.90
    10, 'BUS-10  ',  345.00, 1, 1, 1, 1,  1.01740,   -8.9590, 1.05, 0.95, 1.10, 0.90
    11, 'BUS-11  ',  345.00, 1, 1, 1, 1,  1.01330,   -9.3950, 1.05, 0.95, 1.10, 0.90
    12, 'BUS-12  ',  345.00, 1, 1, 1, 1,  1.00030,   -9.3890, 1.05, 0.95, 1.10, 0.90
    13, 'BUS-13  ',  345.00, 1, 1, 1, 1,  1.01430,   -9.5260, 1.05, 0.95, 1.10, 0.90
    14, 'BUS-14  ',  345.00, 1, 1, 1, 1,  1.01160,   -9.7320, 1.05, 0.95, 1.10, 0.90
    15, 'BUS-15  ',  345.00, 1, 1, 1, 1,  1.01550,   -9.5030, 1.05, 0.95, 1.10, 0.90
    16, 'BUS-16  ',  345.00, 1, 1, 1, 1,  1.03180,   -8.6310, 1.05, 0.95, 1.10, 0.90
    17, 'BUS-17  ',  345.00, 1, 1, 1, 1,  1.03420,   -8.7180, 1.05, 0.95, 1.10, 0.90
    18, 'BUS-18  ',  345.00, 1, 1, 1, 1,  1.03150,   -9.2170, 1.05, 0.95, 1.10, 0.90
    19, 'BUS-19  ',  345.00, 1, 1, 1, 1,  1.05010,   -3.2480, 1.05, 0.95, 1.10, 0.90
    20, 'BUS-20  ',  345.00, 1, 1, 1, 1,  0.99120,   -5.4310, 1.05, 0.95, 1.10, 0.90
    21, 'BUS-21  ',  345.00, 1, 1, 1, 1,  1.03230,   -6.2180, 1.05, 0.95, 1.10, 0.90
    22, 'BUS-22  ',  345.00, 1, 1, 1, 1,  1.05010,   -1.9660, 1.05, 0.95, 1.10, 0.90
    23, 'BUS-23  ',  345.00, 1, 1, 1, 1,  1.04510,   -3.3580, 1.05, 0.95, 1.10, 0.90
    24, 'BUS-24  ',  345.00, 1, 1, 1, 1,  1.03800,   -6.0990, 1.05, 0.95, 1.10, 0.90
    25, 'BUS-25  ',  345.00, 1, 1, 1, 1,  1.05760,   -4.9780, 1.05, 0.95, 1.10, 0.90
    26, 'BUS-26  ',  345.00, 1, 1, 1, 1,  1.05220,   -5.8960, 1.05, 0.95, 1.10, 0.90
    27, 'BUS-27  ',  345.00, 1, 1, 1, 1,  1.03830,   -9.2180, 1.05, 0.95, 1.10, 0.90
    28, 'BUS-28  ',  345.00, 1, 1, 1, 1,  1.05050,   -3.1880, 1.05, 0.95, 1.10, 0.90
    29, 'BUS-29  ',  345.00, 1, 1, 1, 1,  1.05010,   -0.8000, 1.05, 0.95, 1.10, 0.90
    30, 'GEN-30  ',   16.50, 2, 1, 1, 1,  1.04750,   -8.2700, 1.05, 0.95, 1.10, 0.90
    31, 'GEN-31  ',   16.50, 2, 1, 1, 1,  0.98200,    0.0000, 1.05, 0.95, 1.10, 0.90
    32, 'GEN-32  ',   16.50, 2, 1, 1, 1,  0.98310,    2.4370, 1.05, 0.95, 1.10, 0.90
    33, 'GEN-33  ',   16.50, 2, 1, 1, 1,  0.99720,    4.1190, 1.05, 0.95, 1.10, 0.90
    34, 'GEN-34  ',   16.50, 2, 1, 1, 1,  1.01230,    2.9860, 1.05, 0.95, 1.10, 0.90
    35, 'GEN-35  ',   16.50, 2, 1, 1, 1,  1.04940,    6.5600, 1.05, 0.95, 1.10, 0.90
    36, 'GEN-36  ',   16.50, 2, 1, 1, 1,  1.06350,    6.6500, 1.05, 0.95, 1.10, 0.90
    37, 'GEN-37  ',   16.50, 2, 1, 1, 1,  1.02780,    1.4570, 1.05, 0.95, 1.10, 0.90
    38, 'GEN-38  ',   16.50, 2, 1, 1, 1,  1.02650,    7.0000, 1.05, 0.95, 1.10, 0.90
    39, 'GEN-39  ',  345.00, 3, 1, 1, 1,  1.03000,    0.0000, 1.05, 0.95, 1.10, 0.90
0 / END OF BUS DATA, BEGIN LOAD DATA
     3, '1', 1, 1, 1,   322.00,     2.40, 0.0, 0.0, 0.0, 0.0, 1, 1
     4, '1', 1, 1, 1,   500.00,   184.00, 0.0, 0.0, 0.0, 0.0, 1, 1
     7, '1', 1, 1, 1,   233.80,    84.00, 0.0, 0.0, 0.0, 0.0, 1, 1
     8, '1', 1, 1, 1,   522.00,   176.00, 0.0, 0.0, 0.0, 0.0, 1, 1
    12, '1', 1, 1, 1,     8.50,    88.00, 0.0, 0.0, 0.0, 0.0, 1, 1
    15, '1', 1, 1, 1,   320.00,   153.00, 0.0, 0.0, 0.0, 0.0, 1, 1
    16, '1', 1, 1, 1,   329.00,    32.30, 0.0, 0.0, 0.0, 0.0, 1, 1
    18, '1', 1, 1, 1,   158.00,    30.00, 0.0, 0.0, 0.0, 0.0, 1, 1
    20, '1', 1, 1, 1,   680.00,   103.00, 0.0, 0.0, 0.0, 0.0, 1, 1
    21, '1', 1, 1, 1,   274.00,   115.00, 0.0, 0.0, 0.0, 0.0, 1, 1
    23, '1', 1, 1, 1,   247.50,    84.60, 0.0, 0.0, 0.0, 0.0, 1, 1
    24, '1', 1, 1, 1,   308.60,   -92.20, 0.0, 0.0, 0.0, 0.0, 1, 1
    25, '1', 1, 1, 1,   224.00,    47.20, 0.0, 0.0, 0.0, 0.0, 1, 1
    26, '1', 1, 1, 1,   139.00,    17.00, 0.0, 0.0, 0.0, 0.0, 1, 1
    27, '1', 1, 1, 1,   281.00,    75.50, 0.0, 0.0, 0.0, 0.0, 1, 1
    28, '1', 1, 1, 1,   206.00,    27.60, 0.0, 0.0, 0.0, 0.0, 1, 1
    29, '1', 1, 1, 1,   283.50,    26.90, 0.0, 0.0, 0.0, 0.0, 1, 1
    31, '1', 1, 1, 1,     9.20,     4.60, 0.0, 0.0, 0.0, 0.0, 1, 1
    39, '1', 1, 1, 1,  1104.00,   250.00, 0.0, 0.0, 0.0, 0.0, 1, 1
0 / END OF LOAD DATA, BEGIN FIXED SHUNT DATA
0 / END OF FIXED SHUNT DATA, BEGIN GENERATOR DATA
    30, '1',   250.00,   161.80,   400.00,  -140.00,  1.0475, 0,  1000.0, 0.0, 1.0, 0.0, 0.0, 1.0, 1, 100.0,  1040.0,   0.0, 1, 1.0
    31, '1',   677.10,   221.60,   600.00,  -100.00,  0.9820, 0,  1000.0, 0.0, 1.0, 0.0, 0.0, 1.0, 1, 100.0,  1040.0,   0.0, 1, 1.0
    32, '1',   650.00,   206.00,   300.00,   -50.00,  0.9831, 0,   850.0, 0.0, 1.0, 0.0, 0.0, 1.0, 1, 100.0,   850.0,   0.0, 1, 1.0
    33, '1',   632.00,   108.00,   250.00,  -150.00,  0.9972, 0,   850.0, 0.0, 1.0, 0.0, 0.0, 1.0, 1, 100.0,   850.0,   0.0, 1, 1.0
    34, '1',   508.00,   -22.80,   200.00,  -150.00,  1.0123, 0,   850.0, 0.0, 1.0, 0.0, 0.0, 1.0, 1, 100.0,   850.0,   0.0, 1, 1.0
    35, '1',   650.00,   210.60,   300.00,  -100.00,  1.0494, 0,   850.0, 0.0, 1.0, 0.0, 0.0, 1.0, 1, 100.0,   850.0,   0.0, 1, 1.0
    36, '1',   560.00,   100.20,   250.00,  -100.00,  1.0635, 0,   850.0, 0.0, 1.0, 0.0, 0.0, 1.0, 1, 100.0,   850.0,   0.0, 1, 1.0
    37, '1',   540.00,    -1.40,   300.00,  -150.00,  1.0278, 0,   850.0, 0.0, 1.0, 0.0, 0.0, 1.0, 1, 100.0,   850.0,   0.0, 1, 1.0
    38, '1',   830.00,    21.70,   300.00,  -150.00,  1.0265, 0,  1000.0, 0.0, 1.0, 0.0, 0.0, 1.0, 1, 100.0,  1000.0,   0.0, 1, 1.0
    39, '1',  1000.00,   100.00,  1000.00,  -500.00,  1.0300, 0,  1000.0, 0.0, 1.0, 0.0, 0.0, 1.0, 1, 100.0,  1100.0,   0.0, 1, 1.0
0 / END OF GENERATOR DATA, BEGIN BRANCH DATA
     1,     2, '1',  0.00350,  0.04110,  0.69870,   600.0,   600.0,   600.0, 0.0, 0.0, 0.0, 0.0, 1, 1, 0.0, 1, 1.0
     1,    39, '1',  0.00100,  0.02500,  0.75000,  1000.0,  1000.0,  1000.0, 0.0, 0.0, 0.0, 0.0, 1, 1, 0.0, 1, 1.0
     2,     3, '1',  0.00130,  0.01510,  0.25720,   500.0,   500.0,   500.0, 0.0, 0.0, 0.0, 0.0, 1, 1, 0.0, 1, 1.0
     2,    25, '1',  0.00700,  0.00860,  0.14600,   500.0,   500.0,   500.0, 0.0, 0.0, 0.0, 0.0, 1, 1, 0.0, 1, 1.0
     3,     4, '1',  0.00130,  0.02130,  0.22140,   500.0,   500.0,   500.0, 0.0, 0.0, 0.0, 0.0, 1, 1, 0.0, 1, 1.0
     3,    18, '1',  0.00110,  0.01330,  0.21380,   500.0,   500.0,   500.0, 0.0, 0.0, 0.0, 0.0, 1, 1, 0.0, 1, 1.0
     4,     5, '1',  0.00080,  0.01280,  0.13420,   600.0,   600.0,   600.0, 0.0, 0.0, 0.0, 0.0, 1, 1, 0.0, 1, 1.0
     4,    14, '1',  0.00080,  0.01290,  0.13820,   500.0,   500.0,   500.0, 0.0, 0.0, 0.0, 0.0, 1, 1, 0.0, 1, 1.0
     5,     6, '1',  0.00020,  0.00260,  0.04340,  1200.0,  1200.0,  1200.0, 0.0, 0.0, 0.0, 0.0, 1, 1, 0.0, 1, 1.0
     5,     8, '1',  0.00080,  0.01120,  0.14760,   900.0,   900.0,   900.0, 0.0, 0.0, 0.0, 0.0, 1, 1, 0.0, 1, 1.0
     6,     7, '1',  0.00060,  0.00920,  0.11300,   900.0,   900.0,   900.0, 0.0, 0.0, 0.0, 0.0, 1, 1, 0.0, 1, 1.0
     6,    11, '1',  0.00070,  0.00820,  0.13890,   480.0,   480.0,   480.0, 0.0, 0.0, 0.0, 0.0, 1, 1, 0.0, 1, 1.0
     7,     8, '1',  0.00040,  0.00460,  0.07800,   900.0,   900.0,   900.0, 0.0, 0.0, 0.0, 0.0, 1, 1, 0.0, 1, 1.0
     8,     9, '1',  0.00230,  0.03630,  0.38040,   900.0,   900.0,   900.0, 0.0, 0.0, 0.0, 0.0, 1, 1, 0.0, 1, 1.0
     9,    39, '1',  0.00100,  0.02500,  1.20000,  1200.0,  1200.0,  1200.0, 0.0, 0.0, 0.0, 0.0, 1, 1, 0.0, 1, 1.0
    10,    11, '1',  0.00040,  0.00430,  0.07290,   600.0,   600.0,   600.0, 0.0, 0.0, 0.0, 0.0, 1, 1, 0.0, 1, 1.0
    10,    13, '1',  0.00040,  0.00430,  0.07290,   600.0,   600.0,   600.0, 0.0, 0.0, 0.0, 0.0, 1, 1, 0.0, 1, 1.0
    13,    14, '1',  0.00090,  0.01010,  0.17230,   600.0,   600.0,   600.0, 0.0, 0.0, 0.0, 0.0, 1, 1, 0.0, 1, 1.0
    14,    15, '1',  0.00180,  0.02170,  0.36600,   600.0,   600.0,   600.0, 0.0, 0.0, 0.0, 0.0, 1, 1, 0.0, 1, 1.0
    15,    16, '1',  0.00090,  0.00940,  0.17100,   600.0,   600.0,   600.0, 0.0, 0.0, 0.0, 0.0, 1, 1, 0.0, 1, 1.0
    16,    17, '1',  0.00070,  0.00890,  0.13420,   600.0,   600.0,   600.0, 0.0, 0.0, 0.0, 0.0, 1, 1, 0.0, 1, 1.0
    16,    19, '1',  0.00160,  0.01950,  0.30400,   600.0,   600.0,   600.0, 0.0, 0.0, 0.0, 0.0, 1, 1, 0.0, 1, 1.0
    16,    21, '1',  0.00080,  0.01350,  0.25480,   600.0,   600.0,   600.0, 0.0, 0.0, 0.0, 0.0, 1, 1, 0.0, 1, 1.0
    16,    24, '1',  0.00030,  0.00590,  0.06800,   600.0,   600.0,   600.0, 0.0, 0.0, 0.0, 0.0, 1, 1, 0.0, 1, 1.0
    17,    18, '1',  0.00070,  0.00820,  0.13190,   600.0,   600.0,   600.0, 0.0, 0.0, 0.0, 0.0, 1, 1, 0.0, 1, 1.0
    17,    27, '1',  0.00130,  0.01730,  0.32160,   600.0,   600.0,   600.0, 0.0, 0.0, 0.0, 0.0, 1, 1, 0.0, 1, 1.0
    21,    22, '1',  0.00080,  0.01400,  0.25650,   900.0,   900.0,   900.0, 0.0, 0.0, 0.0, 0.0, 1, 1, 0.0, 1, 1.0
    22,    23, '1',  0.00060,  0.00960,  0.18400,   600.0,   600.0,   600.0, 0.0, 0.0, 0.0, 0.0, 1, 1, 0.0, 1, 1.0
    23,    24, '1',  0.00220,  0.03500,  0.36100,   600.0,   600.0,   600.0, 0.0, 0.0, 0.0, 0.0, 1, 1, 0.0, 1, 1.0
    25,    26, '1',  0.00320,  0.03230,  0.51300,   600.0,   600.0,   600.0, 0.0, 0.0, 0.0, 0.0, 1, 1, 0.0, 1, 1.0
    26,    27, '1',  0.00140,  0.01470,  0.23960,   600.0,   600.0,   600.0, 0.0, 0.0, 0.0, 0.0, 1, 1, 0.0, 1, 1.0
    26,    28, '1',  0.00430,  0.04740,  0.78020,   600.0,   600.0,   600.0, 0.0, 0.0, 0.0, 0.0, 1, 1, 0.0, 1, 1.0
    26,    29, '1',  0.00570,  0.06250,  1.02900,   600.0,   600.0,   600.0, 0.0, 0.0, 0.0, 0.0, 1, 1, 0.0, 1, 1.0
    28,    29, '1',  0.00140,  0.01510,  0.24900,   600.0,   600.0,   600.0, 0.0, 0.0, 0.0, 0.0, 1, 1, 0.0, 1, 1.0
0 / END OF BRANCH DATA, BEGIN TRANSFORMER DATA
    30,     2, 0, '1', 1, 1, 1, 0.0, 0.0, 2, 'T30-02  ', 1, 1, 1.0
  0.00000,   0.01810, 100.0
 1.02500, 0.0, 0.0,   900.0,   900.0,   900.0, 0, 0, 1.10, 0.90, 1.10, 0.90, 33, 0, 0.0, 0.0
1.00000, 0.0
    31,     6, 0, '1', 1, 1, 1, 0.0, 0.0, 2, 'T31-06  ', 1, 1, 1.0
  0.00000,   0.02500, 100.0
 1.07000, 0.0, 0.0,  1200.0,  1200.0,  1200.0, 0, 0, 1.10, 0.90, 1.10, 0.90, 33, 0, 0.0, 0.0
1.00000, 0.0
    32,    10, 0, '1', 1, 1, 1, 0.0, 0.0, 2, 'T32-10  ', 1, 1, 1.0
  0.00000,   0.02000, 100.0
 1.07000, 0.0, 0.0,   900.0,   900.0,   900.0, 0, 0, 1.10, 0.90, 1.10, 0.90, 33, 0, 0.0, 0.0
1.00000, 0.0
    33,    19, 0, '1', 1, 1, 1, 0.0, 0.0, 2, 'T33-19  ', 1, 1, 1.0
  0.00000,   0.01430, 100.0
 1.07000, 0.0, 0.0,   900.0,   900.0,   900.0, 0, 0, 1.10, 0.90, 1.10, 0.90, 33, 0, 0.0, 0.0
1.00000, 0.0
    34,    20, 0, '1', 1, 1, 1, 0.0, 0.0, 2, 'T34-20  ', 1, 1, 1.0
  0.00000,   0.01000, 100.0
 1.00900, 0.0, 0.0,   900.0,   900.0,   900.0, 0, 0, 1.10, 0.90, 1.10, 0.90, 33, 0, 0.0, 0.0
1.00000, 0.0
    35,    22, 0, '1', 1, 1, 1, 0.0, 0.0, 2, 'T35-22  ', 1, 1, 1.0
  0.00000,   0.01430, 100.0
 1.02500, 0.0, 0.0,   900.0,   900.0,   900.0, 0, 0, 1.10, 0.90, 1.10, 0.90, 33, 0, 0.0, 0.0
1.00000, 0.0
    36,    23, 0, '1', 1, 1, 1, 0.0, 0.0, 2, 'T36-23  ', 1, 1, 1.0
  0.00000,   0.02720, 100.0
 1.00000, 0.0, 0.0,   900.0,   900.0,   900.0, 0, 0, 1.10, 0.90, 1.10, 0.90, 33, 0, 0.0, 0.0
1.00000, 0.0
    37,    25, 0, '1', 1, 1, 1, 0.0, 0.0, 2, 'T37-25  ', 1, 1, 1.0
  0.00000,   0.01430, 100.0
 1.02500, 0.0, 0.0,   900.0,   900.0,   900.0, 0, 0, 1.10, 0.90, 1.10, 0.90, 33, 0, 0.0, 0.0
1.00000, 0.0
    38,    29, 0, '1', 1, 1, 1, 0.0, 0.0, 2, 'T38-29  ', 1, 1, 1.0
  0.00000,   0.01430, 100.0
 1.02500, 0.0, 0.0,  1200.0,  1200.0,  1200.0, 0, 0, 1.10, 0.90, 1.10, 0.90, 33, 0, 0.0, 0.0
1.00000, 0.0
    12,    11, 0, '1', 1, 1, 1, 0.0, 0.0, 2, 'T12-11  ', 1, 1, 1.0
  0.00160,   0.04350, 100.0
 1.00600, 0.0, 0.0,   900.0,   900.0,   900.0, 0, 0, 1.10, 0.90, 1.10, 0.90, 33, 0, 0.0, 0.0
1.00000, 0.0
    12,    13, 0, '1', 1, 1, 1, 0.0, 0.0, 2, 'T12-13  ', 1, 1, 1.0
  0.00160,   0.04350, 100.0
 1.00600, 0.0, 0.0,   900.0,   900.0,   900.0, 0, 0, 1.10, 0.90, 1.10, 0.90, 33, 0, 0.0, 0.0
1.00000, 0.0
    19,    20, 0, '1', 1, 1, 1, 0.0, 0.0, 2, 'T19-20  ', 1, 1, 1.0
  0.00070,   0.01380, 100.0
 1.06000, 0.0, 0.0,   900.0,   900.0,   900.0, 0, 0, 1.10, 0.90, 1.10, 0.90, 33, 0, 0.0, 0.0
1.00000, 0.0
0 / END OF TRANSFORMER DATA, BEGIN AREA DATA
1, 39, 0.0, 5.0, 'AREA1'
0 / END OF AREA DATA, BEGIN TWO-TERMINAL DC DATA
0 / END OF TWO-TERMINAL DC DATA, BEGIN VSC DC LINE DATA
0 / END OF VSC DC LINE DATA, BEGIN IMPEDANCE CORRECTION DATA
0 / END OF IMPEDANCE CORRECTION DATA, BEGIN MULTI-TERMINAL DC DATA
0 / END OF MULTI-TERMINAL DC DATA, BEGIN MULTI-SECTION LINE DATA
0 / END OF MULTI-SECTION LINE DATA, BEGIN ZONE DATA
1, 'ZONE1'
0 / END OF ZONE DATA, BEGIN INTER-AREA TRANSFER DATA
0 / END OF INTER-AREA TRANSFER DATA, BEGIN OWNER DATA
1, 'OWNER1'
0 / END OF OWNER DATA, BEGIN FACTS DEVICE DATA
0 / END OF FACTS DEVICE DATA, BEGIN SWITCHED SHUNT DATA
0 / END OF SWITCHED SHUNT DATA, BEGIN GNE DATA
0 / END OF GNE DATA, BEGIN INDUCTION MACHINE DATA
0 / END OF INDUCTION MACHINE DATA
Q
